4mgs_with_fossil_over_crit_kw_enabled/circuit_plusmg_2.dss
clear
set defaultbasefrequency=60
new object=circuit.lehigh basekv=115 pu=1.0001 phases=3 bus1=sourcebus angle=30 mvasc3=20000 mvasc1=21000
edit object=vsource.source basekv=115 bus1=sourcebus.1.2.3 pu=1.00 r1=0 x1=0.0001 r0=0 x0=0.0001
new object=vsource.secondsource basekv=4.16 bus1=680.1.2.3 pu=1.00 r1=0 x1=0.0001 r0=0 x0=0.0001
new object=transformer.sub phases=3 windings=2 xhl=0.008 buses=[sourcebus.1.2.3,650.1.2.3] conns=[delta,wye] kvs=[115,4.16] kvas=[5000,5000] %rs=[0.0005,0.0005]
new object=transformer.reg1 phases=1 bank=reg1 xhl=0.01 kvas=[1666,1666] buses=[650.1,rg60.1] kvs=[2.4,2.4] %loadloss=0.01
new object=regcontrol.reg1 transformer=reg1 winding=2 vreg=121 band=2 ptratio=20 ctprim=700 r=3 x=9
new object=transformer.reg2 phases=1 bank=reg1 xhl=0.01 kvas=[1666,1666] buses=[650.2,rg60.2] kvs=[2.4,2.4] %loadloss=0.01
new object=regcontrol.reg2 transformer=reg2 winding=2 vreg=121 band=2 ptratio=20 ctprim=700 r=3 x=9
new object=transformer.reg3 phases=1 bank=reg1 xhl=0.01 kvas=[1666,1666] buses=[650.3,rg60.3] kvs=[2.4,2.4] %loadloss=0.01
new object=regcontrol.reg3 transformer=reg3 winding=2 vreg=121 band=2 ptratio=20 ctprim=700 r=3 x=9
new object=transformer.xfm1 phases=3 windings=2 xhl=2 buses=[633.1.2.3,634.1.2.3] conns=[wye,wye] kvs=[4.16,0.480] kvas=[500,500] %rs=[0.55,0.55] xht=1 xlt=1
new object=linecode.mtx601 nphases=3 basefreq=60 rmatrix=[0.3465|0.1560,0.3375|0.1580,0.1535,0.3414] xmatrix=[1.0179|0.5017,1.0478|0.4236,0.3849,1.0348] units=mi
new object=linecode.mtx602 nphases=3 basefreq=60 rmatrix=[0.7526|0.1580,0.7475|0.1560,0.1535,0.7436] xmatrix=[1.1814|0.4236,1.1983|0.5017,0.3849,1.2112] units=mi
new object=linecode.mtx603 nphases=2 basefreq=60 rmatrix=[1.3238|0.2066,1.3294] xmatrix=[1.3569|0.4591,1.3471] units=mi
new object=linecode.mtx604 nphases=2 basefreq=60 rmatrix=[1.3238|0.2066,1.3294] xmatrix=[1.3569|0.4591,1.3471] units=mi
new object=linecode.mtx605 nphases=1 basefreq=60 rmatrix=[1.3292] xmatrix=[1.3475] units=mi
new object=linecode.mtx606 nphases=3 units=mi rmatrix=[0.791721|0.318476,0.781649|0.28345,0.318476,0.791721] xmatrix=[0.438352|0.0276838,0.396697|-0.0184204,0.0276838,0.438352] cmatrix=[383.948|0,383.948|0,0,383.948]
new object=linecode.mtx607 nphases=1 basefreq=60 rmatrix=[1.3425] xmatrix=[0.5124] cmatrix=[236] units=mi
new object=loadshape.solar_634_shape npts=8760 interval=1 useactual=yes mult=[0.0,0.0,0.0,0.0,0.0,0.0,0.0,0.0,2.2683782014163194,6.8772867494288885,9.707964580158851,29.832019857305752,6.841058457123354,15.986723407968563,23.91645727084481,25.74918264630129,12.865610359932045,0.8527348466202002,0.0,0.0,0.0,0.0,0.0,0.0,0.0,0.0,0.0,0.0,0.0,0.0,0.0,0.0,5.951790878766482,15.115722195480027,21.158236024725912,0.8347729201830021,45.41931873162001,16.240625893538446,58.97448440308178,40.556203258606416,21.4121385102958,1.8327253754564807,0.0,0.0,0.0,0.0,0.0,0.0,0.0,0.0,0.0,0.0,0.0,0.0,0.0,0.0,17.456556981507422,40.7014208672597,54.07483619833151,22.91850481557132,40.75591552543357,40.64692620908583,33.207035390912154,28.83406740203227,15.133684121917224,1.197664722100631,0.0,0.0,0.0,0.0,0.0,0.0,0.0,0.0,0.0,0.0,0.0,0.0,0.0,0.0,26.56568920061595,60.86170443671213,86.41117481618626,102.36136549241816,108.44041205340072,105.57320149093408,92.87107510552364,71.18676774378963,38.79593446776101,7.6213367191324854,0.0,0.0,0.0,0.0,0.0,0.0,0.0,0.0,0.0,0.0,0.0,0.0,0.0,0.0,28.88825762077501,64.45439416358289,90.69341985458678,106.5894203120759,112.3959935821891,108.4221456875324,94.81278979732788,72.27544314954253,39.15913070910978,7.4398908181736685,0.0,0.0,0.0,0.0,0.0,0.0,0.0,0.0,0.0,0.0,0.0,0.0,0.0,0.0,22.82747742566077,54.05687427189432,84.74162897582026,75.94089390045548,85.84857074744147,88.55229733538653,88.89722721086693,67.44855596883447,36.509594339907494,6.8227920912550175,0.0,0.0,0.0,0.0,0.0,0.0,0.0,0.0,0.0,0.0,0.0,0.0,0.0,0.0,23.17240730114121,23.00922776605073,82.21934828883407,94.30437594732584,84.45149819794483,80.85850403164295,68.15637764623251,34.84035293897262,18.400014778607023,1.959676618241424,0.0,0.0,0.0,0.0,0.0,0.0,0.0,0.0,0.0,0.0,0.0,0.0,0.0,0.0,23.589793761232716,55.000636508425075,14.51688983442971,19.12579838244228,42.8063150941544,49.592878893103894,40.62896428264863,26.329748641483263,13.972247692122128,1.6150511821921318,0.0,0.0,0.0,0.0,0.0,0.0,0.0,0.0,0.0,0.0,0.0,0.0,0.0,0.0,24.243120780456906,55.6536590882181,29.832019857305752,63.456441708309406,49.70186820945164,23.208635593446747,29.75925883326354,24.896143360249948,12.901838652237576,6.097008487419759,0.0,0.0,0.0,0.0,0.0,0.0,0.0,0.0,0.0,0.0,0.0,0.0,0.0,0.0,11.232292811871575,27.76335392271658,44.729763420090286,76.66667750429075,44.4938228609576,58.10348319059325,59.01071269538732,47.61493590899412,26.56568920061595,4.663403206186441,0.0,0.0,0.0,0.0,0.0,0.0,0.0,0.0,0.0,0.0,0.0,0.0,0.0,0.0,29.25145386212377,64.74482938088943,90.62096326997568,106.20826214428992,111.94237882979206,108.44010761396959,95.77451396029585,74.56178327739603,44.25788230182492,10.905629302259483,0.0,0.0,0.0,0.0,0.0,0.0,0.0,0.0,0.0,0.0,0.0,0.0,0.0,0.0,27.019303953012987,61.36981384728304,86.1207395988797,104.43003142700731,110.81747513173364,108.34938466349018,96.0104545194285,72.69282960963402,43.22370155424591,10.742449767169003,0.0,0.0,0.0,0.0,0.0,0.0,0.0,0.0,0.0,0.0,0.0,0.0,0.0,0.0,26.438737957831012,60.680258535753325,85.44945065321832,78.82606638935933,87.49985022193917,79.57011635906291,71.80356203127714,57.28667219684744,33.98731365292129,8.220169080182801,0.0,0.0,0.0,0.0,0.0,0.0,0.0,0.0,0.0,0.0,0.0,0.0,0.0,0.0,11.014618618607225,26.093808082350577,47.28827239938203,60.280834002099006,69.06360715102659,63.38398512369834,37.48958486874377,30.52157516883547,17.22061642237473,2.8127159042927636,0.0,0.0,0.0,0.0,0.0,0.0,0.0,0.0,0.0,0.0,0.0,0.0,0.0,0.0,5.806573270113201,15.58729887431426,72.40239439232747,90.25807146805805,104.2485855260485,103.41411704529665,92.38123206082108,72.13022554088923,42.04430319801361,10.63346045082126,0.0,0.0,0.0,0.0,0.0,0.0,0.0,0.0,0.0,0.0,0.0,0.0,0.0,0.0,24.043408513629746,55.871637720913604,78.80780002349098,66.65031578038814,78.33591890522561,101.9984736905005,61.64198269872126,28.16247401693975,15.768744775273076,2.8489441965982985,0.0,0.0,0.0,0.0,0.0,0.0,0.0,0.0,0.0,0.0,0.0,0.0,0.0,0.0,24.859915067944414,59.79099095739644,87.28187158924366,106.37174611881154,110.41835503751051,107.58737276734935,95.53857340116312,75.1788820043147,44.02224618212337,11.468233371004262,0.0,0.0,0.0,0.0,0.0,0.0,0.0,0.0,0.0,0.0,0.0,0.0,0.0,0.0,27.14625519579793,61.15183521458754,88.4795363113443,104.79292322892496,111.32558454230455,108.53113500388012,97.40752706892515,76.26755741006758,44.80252444413249,11.831125172921894,0.0,0.0,0.0,0.0,0.0,0.0,0.0,0.0,0.0,0.0,0.0,0.0,0.0,0.0,28.63435513520512,64.20049167801301,90.04039727479368,105.42798388228078,115.49914470378842,112.54151563027351,100.02053070639076,76.50349796920027,47.07059820611768,12.901838652237576,0.0,0.0,0.0,0.0,0.0,0.0,0.0,0.0,0.0,0.0,0.0,0.0,0.0,0.0,28.107979358765874,62.694429812168615,87.66333419646077,102.65180070972471,108.25896615244191,105.01059742218928,93.61512507522724,73.81773330769245,44.729763420090286,12.030837439749046,0.0,0.0,0.0,0.0,0.0,0.0,0.0,0.0,0.0,0.0,0.0,0.0,0.0,0.0,7.240178551346519,18.127845927168806,27.454956778972825,15.678021824793667,45.45554702392554,12.121560390228453,12.647631727236554,0.18144590095881444,0.0,0.0,0.0,0.0,0.0,0.0,0.0,0.0,0.0,0.0,0.0,0.0,0.0,0.0,0.0,0.0,6.677574482601737,19.61564142714485,55.435984894953755,59.21042496221447,111.77919929470157,109.36560348463199,51.679811193561385,44.83875273643804,26.07584615591338,5.788611343676004,0.0,0.0,0.0,0.0,0.0,0.0,0.0,0.0,0.0,0.0,0.0,0.0,0.0,0.0,7.548575695090276,19.57941313483932,22.75502084104971,56.633649617054395,119.49125896431349,117.47708768789818,104.84741788709879,82.76399043114165,49.93780876858431,14.153998032512085,0.0,0.0,0.0,0.0,0.0,0.0,0.0,0.0,0.0,0.0,0.0,0.0,0.0,0.0,29.940704734222354,65.92422773712174,91.87281821081905,107.42419323225887,113.9023598874646,111.1441386413457,99.5486495881254,78.91678933983873,49.42969935801341,14.480357102693038,0.0,0.0,0.0,0.0,0.0,0.0,0.0,0.0,0.0,0.0,0.0,0.0,0.0,0.0,28.52536581885737,63.00282695591238,87.64506783059242,102.7242572943358,108.91198873223496,105.93609329285171,95.12118694107164,75.90466560814994,47.45175637390365,13.990514057990467,0.0,0.0,0.0,0.0,0.0,0.0,0.0,0.0,0.0,0.0,0.0,0.0,0.0,0.0,18.926390555046265,43.386881089336384,50.01026535319538,74.23511976778394,83.10861586719092,79.64287738310513,72.5113837086752,53.33109066805906,32.6626976880357,9.327110851804024,0.0,0.0,0.0,0.0,0.0,0.0,0.0,0.0,0.0,0.0,0.0,0.0,0.0,0.0,22.50111835547982,52.568774332487116,50.935761223857796,94.61307753050077,99.8208184395636,72.42066075819581,10.05289445563928,70.4064894817805,41.59068844561657,11.704173930136948,0.0,0.0,0.0,0.0,0.0,0.0,0.0,0.0,0.0,0.0,0.0,0.0,0.0,0.0,6.369177338857981,10.252606722466432,15.46034763152932,23.898190904976467,18.871895896872395,13.101246479633591,13.282996820023547,5.153550690320153,2.649231929771146,0.054494658173872126,0.0,0.0,0.0,0.0,0.0,0.0,0.0,0.0,0.0,0.0,0.0,0.0,0.0,0.0,29.97723746595903,65.3253953760714,90.94762677958776,106.78913257890306,113.2487284288093,110.72675218125424,100.18401468091238,80.51357415616252,49.55665060079835,15.696288190662004,0.0,0.0,0.0,0.0,0.0,0.0,0.0,0.0,0.0,0.0,0.0,0.0,0.0,0.0,28.47117560011464,62.9483322977385,88.0807206565523,103.1778720467328,109.49285916684806,107.24274733130008,96.57275414874212,61.98660813477055,41.24575857013614,15.58729887431426,0.0,0.0,0.0,0.0,0.0,0.0,0.0,0.0,0.0,0.0,0.0,0.0,0.0,0.0,8.891458025844186,27.27351087801401,46.43553755276182,46.998141621506605,60.46227990305783,57.10522629588861,51.55255551134531,37.090464774520605,22.75502084104971,6.532661313379598,0.0,0.0,0.0,0.0,0.0,0.0,0.0,0.0,0.0,0.0,0.0,0.0,0.0,0.0,29.95897110009069,65.85177115251068,93.32468985792069,109.32937519232644,116.07971069897042,114.06553942255509,102.45208844289756,82.58224009075168,51.42560426856037,17.16612176420086,0.0,0.0,0.0,0.0,0.0,0.0,0.0,0.0,0.0,0.0,0.0,0.0,0.0,0.0,30.06796041643843,64.10976872753359,88.93345550317247,104.21235723374298,110.43631696394766,108.73054283127613,98.45997418237249,79.69706760184786,51.407642342123175,17.492785273812952,0.0,0.0,0.0,0.0,0.0,0.0,0.0,0.0,0.0,0.0,0.0,0.0,0.0,0.0,29.849981783742948,25.89440025495457,60.73444875449606,75.46901278219012,86.1207395988797,84.3604708080343,72.67456324376569,20.813306149245484,15.042961171437822,9.92594321285434,0.0,0.0,0.0,0.0,0.0,0.0,0.0,0.0,0.0,0.0,0.0,0.0,0.0,0.0,0.0,23.063417984793467,62.1863204015977,87.20971944406372,113.63019103602642,113.53946808554701,104.03091133278416,84.596411367167,53.38558532623292,18.781172946392992,0.0,0.0,0.0,0.0,0.0,0.0,0.0,0.0,0.0,0.0,0.0,0.0,0.0,0.0,21.55735611894908,57.486384463674575,85.99378835609475,114.86408405043257,97.06290163287585,109.1117009990621,107.11579608851515,83.19933881767035,32.154588277464796,15.641793532488133,0.0,0.0,0.0,0.0,0.0,0.0,0.0,0.0,0.0,0.0,0.0,0.0,0.0,0.0,15.859467725752484,21.04924670837817,15.859467725752484,23.898190904976467,15.823239433446947,66.06944534577502,60.17214912518241,43.677316306642936,15.169912414222761,2.086932300457505,0.0,0.0,0.0,0.0,0.0,0.0,0.0,0.0,0.0,0.0,0.0,0.0,0.0,0.0,1.179398356232294,7.6213367191324854,11.921848123401293,42.66109748550112,51.3531476839493,23.91645727084481,34.640640672145466,15.09745582961169,9.16362687728241,17.256844714680266,0.0,0.0,0.0,0.0,0.0,0.0,0.0,0.0,0.0,0.0,0.0,0.0,0.0,0.0,7.51234740278474,7.149455600867113,27.72712563041105,54.3107767574642,49.81055308636823,62.31327164438264,68.10157854862751,82.1289297777858,53.09515010892636,19.053341797831205,0.0,0.0,0.0,0.0,0.0,0.0,0.0,0.0,0.0,0.0,0.0,0.0,0.0,0.0,6.02455190280869,15.29716809643884,28.61608876933678,106.57115394620756,39.993599189861634,39.77592499659728,45.14714988018178,33.969351726484085,0.8347729201830021,17.710459467077307,0.0,0.0,0.0,0.0,0.0,0.0,0.0,0.0,0.0,0.0,0.0,0.0,0.0,0.0,9.63550799554778,42.824581460022735,92.5626779617799,110.49081162212157,116.64231476771519,116.07971069897042,105.48247854045465,85.86683711330981,55.58120250360704,20.958523757898764,0.0,0.0,0.0,0.0,0.0,0.0,0.0,0.0,0.0,0.0,0.0,0.0,0.0,3.066618389862648,35.3301959836752,70.51517435869711,96.60928688047882,111.90615053748655,118.31155616865006,115.8437701398377,105.31929900536421,86.08451130657417,57.486384463674575,22.02923723721445,0.0,0.0,0.0,0.0,0.0,0.0,0.0,0.0,0.0,0.0,0.0,0.0,0.0,3.1211130480365195,34.06007467696349,67.95666537940537,92.47195501130051,107.42419323225887,113.82959886342243,112.10586280431367,105.42798388228078,83.54396425371962,55.47221318725929,21.357948291553065,0.0,0.0,0.0,0.0,0.0,0.0,0.0,0.0,0.0,0.0,0.0,0.0,0.0,3.9376196023511847,35.80207710194056,70.53344072456545,98.18780533093428,110.07342516203005,116.09797706483872,97.53478275114124,92.48991693773769,70.89633252648308,55.9803225978302,12.085332097922914,0.0,0.0,0.0,0.0,0.0,0.0,0.0,0.0,0.0,0.0,0.0,0.0,0.0,0.0724565846110702,19.88811471801421,45.528308047967755,64.34570928666629,73.25512923894766,86.46536503492901,91.51023084833255,60.86170443671213,53.53049849545508,37.94319962114081,12.865610359932045,0.0,0.0,0.0,0.0,0.0,0.0,0.0,0.0,0.0,0.0,0.0,0.0,0.0,0.8710012124885371,32.0459034005482,64.25498633618686,90.04009283536257,105.75464739189292,112.28730870527252,110.56326820673262,100.81907533426822,81.4935646849988,52.15138787239562,20.160283569452435,0.0,0.0,0.0,0.0,0.0,0.0,0.0,0.0,0.0,0.0,0.0,0.0,0.0,0.0,4.7723925225341866,6.7682974330811465,21.466633168469674,30.031427684701768,32.02763703467986,38.77797254132381,24.696735532853932,21.430404876164136,22.809515499223586,8.474071565752686,0.0,0.0,0.0,0.0,0.0,0.0,0.0,0.0,0.0,0.0,0.0,0.0,0.0,0.0,0.5263757764392453,23.408347860273896,41.6448786643593,53.91165666324103,81.52979297730434,93.1615103228302,72.89223743703003,90.16734851757865,34.023541945226825,11.649679271963075,0.0,0.0,0.0,0.0,0.0,0.0,0.0,0.0,0.0,0.0,0.0,0.0,0.0,3.8289347254345794,11.885619831095765,25.622231403516345,45.16541624605012,62.512983911209794,120.90659787967844,116.73303771819458,106.35347975294322,87.40912727145975,58.97448440308178,23.789506028059858,0.0,0.0,0.0,0.0,0.0,0.0,0.0,0.0,0.0,0.0,0.0,0.0,0.0,4.899343765319129,36.34641480481701,70.29750016543275,94.63134389636907,109.49285916684806,114.77305666052204,112.50498289853684,102.8877412688574,84.5239547825559,57.10522629588861,23.154140935272874,0.0,0.0,0.0,0.0,0.0,0.0,0.0,0.0,0.0,0.0,0.0,0.0,0.0,4.46399537879043,13.827334522899987,57.84927626559222,69.9163419976468,108.13171047022585,113.81163693698521,111.79716122113878,102.07093027511159,83.77990481285232,56.68814427522826,22.01097087134611,0.0,0.0,0.0,0.0,0.0,0.0,0.0,0.0,0.0,0.0,0.0,0.0,0.0,1.9779429841097609,7.349167867694263,36.1649689038582,34.023541945226825,46.97987525563828,64.49062245588843,52.587040698355466,67.08566416691683,33.06181778225888,10.306796941209166,0.018266365868337023,0.0,0.0,0.0,0.0,0.0,0.0,0.0,0.0,0.0,0.0,0.0,0.0,0.0,0.0,0.9434577970996074,0.4718811182653731,5.679622027328259,36.836257849519576,25.56773674534247,58.99244632951897,64.00077941118586,42.370966707625705,4.645441279749244,21.775030312213424,0.0,0.0,0.0,0.0,0.0,0.0,0.0,0.0,0.0,0.0,0.0,0.0,0.0,6.5506232398167965,41.04604630330898,77.70116269130091,104.08540599095802,120.52543971189249,126.53172524883284,119.67270486527228,109.3476415581948,90.04039727479368,61.80516223381174,26.130340814087248,0.0,0.0,0.0,0.0,0.0,0.0,0.0,0.0,0.0,0.0,0.0,0.0,0.0,6.931781407602762,40.247806114862655,73.99917920865127,98.09708238045486,112.72265709180121,118.56576309365109,116.09797706483872,105.91813136641451,87.4636219296336,59.863447542007506,25.20484494342484,0.0,0.0,0.0,0.0,0.0,0.0,0.0,0.0,0.0,0.0,0.0,0.0,0.0,4.609212987443708,36.43713775529642,57.15972095406249,78.95301763214427,95.77451396029585,95.8290086184697,95.86523691077524,57.46842253723739,40.26576804129985,55.20004433582107,24.18862612228303,0.0,0.0,0.0,0.0,0.0,0.0,0.0,0.0,0.0,0.0,0.0,0.0,0.0,2.6312700033339484,22.410395405000415,50.355195228675825,60.11765446700854,73.25512923894766,71.49516488753339,88.22563382577442,65.57960230107244,33.11631244043275,10.361291599383037,10.27056864890363,0.0,0.0,0.0,0.0,0.0,0.0,0.0,0.0,0.0,0.0,0.0,0.0,0.0,5.625127369154386,27.58190802175777,37.16292135913167,61.56922167467905,85.50364087196105,84.3245469551599,77.59217337495316,67.17638711739625,64.96250357415379,37.70725906200812,8.746240417190906,0.0,0.0,0.0,0.0,0.0,0.0,0.0,0.0,0.0,0.0,0.0,0.0,0.0,2.994161805251577,16.603517695456073,43.768039257122346,45.16541624605012,56.52466030070664,68.79143829958838,79.8785135028067,70.51517435869711,62.458489253035914,45.292367488835055,14.063275082032677,0.0,0.0,0.0,0.0,0.0,0.0,0.0,0.0,0.0,0.0,0.0,0.0,0.0,8.093217837397859,40.901133134086855,73.34585218942706,96.57275414874212,109.67430506780687,118.71098070230437,115.22667141291909,103.6680195308665,83.59845891189352,54.691934925250166,23.75297329632319,0.0,0.0,0.0,0.0,0.0,0.0,0.0,0.0,0.0,0.0,0.0,0.0,0.0,8.855229733538653,43.82253391529621,79.0440450220548,104.46625971931286,120.0173303013216,126.00565391182477,123.53786788301241,101.3089183789708,93.01629271417694,59.04694098769285,28.343919917898564,0.0,0.0,0.0,0.0,0.0,0.0,0.0,0.0,0.0,0.0,0.0,0.0,0.0,8.619289174405964,40.06636021390385,68.37405183949687,104.64770562027168,118.56576309365109,123.61032446762349,120.07182495949549,107.09752972264678,83.30802369458695,55.47221318725929,23.843696246802594,0.0,0.0,0.0,0.0,0.0,0.0,0.0,0.0,0.0,0.0,0.0,0.0,0.0,9.16362687728241,4.1011035768728,80.11445406193937,35.09425542454251,42.969799068676025,59.264615180957215,126.76766580796551,113.12208162545548,93.32468985792069,62.67616344630028,28.23523504098196,0.0,0.0,0.0,0.0,0.0,0.0,0.0,0.0,0.0,0.0,0.0,0.0,0.0,10.14361740611869,45.12888351431345,78.42694629513616,101.69007654675676,115.8437701398377,121.43266921668655,119.45503067200796,108.58562966205399,90.49401202719072,62.83934298139075,28.343919917898564,0.0,0.0,0.0,0.0,0.0,0.0,0.0,0.0,0.0,0.0,0.0,0.0,0.0,10.7604116936062,47.70565885947352,82.47325077440394,107.89607435052427,123.10221505705258,128.94532105890246,125.9873875459564,114.91827426917531,92.253976378605,64.58164984579896,29.577812932304727,1.5060618658443878,0.0,0.0,0.0,0.0,0.0,0.0,0.0,0.0,0.0,0.0,0.0,0.0,10.887667375822284,46.544526869109575,80.87646595808016,104.62974369383447,118.29359424221286,119.03733977248531,116.5878201095413,105.91813136641451,86.7013055940617,60.5167745612317,27.255244512145676,1.0341807475790146,0.0,0.0,0.0,0.0,0.0,0.0,0.0,0.0,0.0,0.0,0.0,0.0,10.706221474863467,41.84459093118646,79.24345284945082,103.45004089817104,117.15042417828607,121.7955610186042,120.16254790997488,104.12163428326357,85.7033531387882,59.319109839131066,26.601917492921487,0.9254958706624092,0.0,0.0,0.0,0.0,0.0,0.0,0.0,0.0,0.0,0.0,0.0,0.0,11.232292811871575,45.96365643449646,78.82606638935933,102.94193148760013,117.02347293550116,123.22916629983749,121.12427207294279,110.56326820673262,92.01834025890345,62.16805403572937,28.343919917898564,1.6330131086293298,0.0,0.0,0.0,0.0,0.0,0.0,0.0,0.0,0.0,0.0,0.0,0.0,10.21607399072976,39.503756145159066,78.80810446292213,91.69137230986021,115.7530471893583,120.1808142758432,117.31360371337657,106.64391497024977,87.26390966280646,44.693535127784756,27.27351087801401,1.3791106230594454,0.0,0.0,0.0,0.0,0.0,0.0,0.0,0.0,0.0,0.0,0.0,0.0,11.432005078698726,44.7118014936531,60.58953558527391,70.13432063034229,74.50728861922218,109.16619565723595,117.98519709846909,72.80181892598176,86.1207395988797,58.43014670020533,26.96480929483912,1.2338930144061662,0.0,0.0,0.0,0.0,0.0,0.0,0.0,0.0,0.0,0.0,0.0,0.0,9.744497311895524,34.96730418175757,67.43028960296614,100.29269955782898,114.99103529321751,91.67341038342305,100.23820489965509,86.62884900945063,78.73534343887992,57.15972095406249,27.345967462625083,1.5422901581499229,0.0,0.0,0.0,0.0,0.0,0.0,0.0,0.0,0.0,0.0,0.0,0.0,8.528566223926555,30.448814144793268,30.53953709527267,17.365834031028008,46.762201062373926,63.42021341600388,117.93070244029522,107.3514322082167,89.169091622874,62.22254869390325,27.98102811598093,2.014171276415296,0.0,0.0,0.0,0.0,0.0,0.0,0.0,0.0,0.0,0.0,0.0,0.0,13.191969430112998,47.88710476043235,79.93300816098053,77.50145042447376,116.6605811335835,120.94282617198401,119.1101007965275,109.03893997501991,90.80240917093451,63.72861055974762,29.12419817990769,2.3770630783329247,0.0,0.0,0.0,0.0,0.0,0.0,0.0,0.0,0.0,0.0,0.0,0.0,13.772839864726116,47.77841988351573,78.33622334465673,99.83908480543195,115.80754184753219,121.23326138929056,118.0031590249063,93.70584802570666,89.6592391070077,61.11560692228201,29.051741595296626,2.3591011518957266,0.0,0.0,0.0,0.0,0.0,0.0,0.0,0.0,0.0,0.0,0.0,0.0,13.591393963767302,46.889152305158866,68.55549774045568,74.25338613365227,95.21190989155106,106.13580555967886,94.88524638193896,92.2722427444733,78.73534343887992,38.687249590844395,18.545232387260302,0.9254958706624092,0.0,0.0,0.0,0.0,0.0,0.0,0.0,0.0,0.0,0.0,0.0,0.0,1.8872200336303533,7.875239204702369,12.448223899840546,23.462842518447772,12.575175142625485,8.347120322967744,28.63435513520512,39.667240119680685,3.012123731688776,22.446623697305952,10.651726816689598,0.018266365868337023,0.0,0.0,0.0,0.0,0.0,0.0,0.0,0.0,0.0,0.0,0.0,0.0,7.51234740278474,23.372119567968358,37.39886191826436,35.039760766368644,52.441823089702176,42.66109748550112,40.120854872077715,43.804267549427884,42.20748273310408,13.028789895022523,6.02455190280869,0.0,0.0,0.0,0.0,0.0,0.0,0.0,0.0,0.0,0.0,0.0,0.0,0.0,2.2318454696796453,9.454062094588966,35.29396769136966,51.117207124816616,86.28422357340133,118.42054548499779,95.62929635164255,92.94353169013472,86.91928422675717,37.94319962114081,18.21856887764821,1.088675405752887,0.0,0.0,0.0,0.0,0.0,0.0,0.0,0.0,0.0,0.0,0.0,0.0,16.131636577190704,17.510747200250147,53.78470542045609,85.32249941043338,121.23326138929056,126.20506173922077,124.8807502137663,115.29943243696123,96.40957461365166,35.38469064184907,17.85567707573058,1.4698335735388528,0.0,0.0,0.0,0.0,0.0,0.0,0.0,0.0,0.0,0.0,0.0,0.0,19.234787698790022,58.23043443337817,92.2360144521678,116.46086886675634,129.816322271391,134.3707361612297,132.06643410693894,119.72719952344616,99.25851881024995,69.78939075486186,32.6626976880357,3.5564614345652186,0.0,0.0,0.0,0.0,0.0,0.0,0.0,0.0,0.0,0.0,0.0,0.0,18.99884713965734,56.14350213292067,87.69925804933516,109.23865224184703,121.1787667311167,124.49959204598036,123.57409617531796,111.39804112691559,91.89108457668738,64.79932403906332,31.483299331803423,3.393281899474742,0.0,0.0,0.0,0.0,0.0,0.0,0.0,0.0,0.0,0.0,0.0,0.0,18.762906580524653,54.56498368246522,84.90511295034187,110.2186427706833,123.17497608109478,68.08361662219029,126.16883344691523,114.4829258826466,95.64725827807976,65.76104820203126,32.22734930150701,4.0466089186989285,0.0,0.0,0.0,0.0,0.0,0.0,0.0,0.0,0.0,0.0,0.0,0.0,18.490737729086433,53.60325951949728,84.36077524746544,106.15376748611608,57.032769711277545,97.09882548575024,98.87736064246401,74.38033737643724,47.50625103207752,36.96320909230453,18.23683524351655,1.7237360591087372,0.0,0.0,0.0,0.0,0.0,0.0,0.0,0.0,0.0,0.0,0.0,0.0,2.050399568720831,4.5364519634015,4.972104789361338,16.83945825458877,37.435090210569896,51.33488131808096,66.0332170534695,52.097197653652884,51.55255551134531,24.44252860785291,12.266777998881727,0.7802782620091299,0.0,0.0,0.0,0.0,0.0,0.0,0.0,0.0,0.0,0.0,0.0,0.0,0.7985446278774669,3.4295101917802766,12.847343994063706,19.942304936756944,20.650126614155003,22.065465529519987,15.169912414222761,17.129893471895326,14.752525954131258,8.056685105661183,3.7199454090868342,0.0,0.0,0.0,0.0,0.0,0.0,0.0,0.0,0.0,0.0,0.0,0.0,0.0,0.3446254360492918,0.3266635096120938,5.752383051370468,9.690002653721653,17.184083690638055,12.339234583492797,14.734564027694061,8.855229733538653,18.07335126899493,14.970504586826749,7.240178551346519,0.18144590095881444,0.0,0.0,0.0,0.0,0.0,0.0,0.0,0.0,0.0,0.0,0.0,0.0,19.652174158881532,53.621221445934474,82.56397372488334,102.85120853712074,64.58164984579896,55.907866013219135,74.92467507931367,58.86549508673403,93.16120588339909,30.684754703925947,31.664745232762236,4.2460167460949405,0.0,0.0,0.0,0.0,0.0,0.0,0.0,0.0,0.0,0.0,0.0,0.0,5.461947834063909,26.819591686185838,53.91165666324103,61.80516223381174,53.94788495554657,58.84722872086571,69.1722920279432,59.37360449730495,79.6246110172368,45.582802706141635,23.372119567968358,3.248064290821462,0.0,0.0,0.0,0.0,0.0,0.0,0.0,0.0,0.0,0.0,0.0,0.0,21.775030312213424,56.851323810318746,77.75535291004363,91.14733904641493,106.51696372746484,111.47080215095781,107.02476869860462,97.38956514248794,79.4973553350207,46.81669572054779,23.843696246802594,3.4840048499541485,0.0,0.0,0.0,0.0,0.0,0.0,0.0,0.0,0.0,0.0,0.0,0.0,21.067513074246506,48.83086699696309,61.659944625158474,69.37200429477035,72.76528619424509,80.93096061625404,97.78868523671112,83.07238757488541,47.977827710911754,26.493232616004878,13.155741137807464,1.3973769889277825,0.0,0.0,0.0,0.0,0.0,0.0,0.0,0.0,0.0,0.0,0.0,0.0,10.397519891688573,25.295567893904252,40.03013192159831,107.47868789043278,118.78343728691543,124.00944456184664,120.61616266237188,110.70848581538591,92.1452915016884,63.492670000614936,15.188178780091095,4.46399537879043,0.0,0.0,0.0,0.0,0.0,0.0,0.0,0.0,0.0,0.0,0.0,0.0,21.865753262692838,54.60121197477075,50.6090977142457,70.60589730917651,90.6026969041073,118.6019913859566,114.80958939225869,104.68423835200834,87.44535556376528,62.1863204015977,18.109579561300464,2.5947372715972743,0.0,0.0,0.0,0.0,0.0,0.0,0.0,0.0,0.0,0.0,0.0,0.0,3.7199454090868342,18.8898578233096,32.98936119764781,35.947294710593845,52.94993250027308,76.39450865285252,83.72541015467844,81.27589049173444,92.1452915016884,43.35065279703085,14.099503374338212,1.8509917413248185,0.0,0.0,0.0,0.0,0.0,0.0,0.0,0.0,0.0,0.0,0.0,0.0,24.479061339589585,61.315319189109175,92.36296569495278,113.95655010620735,126.44100229835344,131.2678894790615,127.82011292141287,116.46086886675634,97.37129877661964,69.37200429477035,34.53165135579773,5.153550690320153,0.0,0.0,0.0,0.0,0.0,0.0,0.0,0.0,0.0,0.0,0.0,0.2539024855698846,25.00513267659769,59.627506982874834,89.58647808296551,107.5149161827383,119.99936837488441,124.6445052152025,125.8787026690398,110.6177628649065,92.12702513582006,65.68828717798904,33.461242315913175,5.3349965912789665,0.0,0.0,0.0,0.0,0.0,0.0,0.0,0.0,0.0,0.0,0.0,0.9254958706624092,26.184531032829984,61.44227043189411,90.85690382910835,111.38007920047842,122.61237201235,126.04188220413029,123.0297584724415,112.7954181158434,94.9214746742445,68.02912196401644,34.94903781588923,5.679622027328259,0.0,0.0,0.0,0.0,0.0,0.0,0.0,0.0,0.0,0.0,0.0,0.6712889456613856,22.59184130595923,43.60485972203186,65.81523842077401,73.99917920865127,92.05456855120899,79.062006948492,103.77670440778313,56.32494803387949,58.883761452602364,64.30917655492959,31.51952762410895,5.135284324451815,0.0,0.0,0.0,0.0,0.0,0.0,0.0,0.0,0.0,0.0,0.0,0.0,20.90402909972489,32.26357759381255,30.013465758264562,33.170807098606616,52.67776364883487,68.70071534910898,40.937361426392386,38.37885244710064,39.43129956054799,24.479061339589585,7.421624452305332,3.0303900975571127,0.0,0.0,0.0,0.0,0.0,0.0,0.0,0.0,0.0,0.0,0.0,0.0,8.383348615273276,25.059627334771555,23.75297329632319,113.30352752641431,128.87256003486021,134.51595376988294,127.67489531275959,117.2411471287655,98.29679464728204,70.27923379956442,34.74962998849321,5.697888393196597,0.0,0.0,0.0,0.0,0.0,0.0,0.0,0.0,0.0,0.0,0.0,2.050399568720831,28.906523986643343,66.61378304865146,99.60314424629928,121.97731135899414,135.16928078910715,139.2886507318483,134.82465535305786,122.19498555225849,99.13156756746504,52.42355672383385,28.670583427510646,6.133236779725295,0.0,0.0,0.0,0.0,0.0,0.0,0.0,0.0,0.0,0.0,0.0,2.141122519200238,28.99724693712275,65.47061298472471,96.19190042038731,116.98694020376446,129.19922354447235,133.11857678095515,129.07227230168738,117.54954427250924,98.00635942997545,68.26506252314914,35.457147226460144,6.296720754246912,0.0,0.0,0.0,0.0,0.0,0.0,0.0,0.0,0.0,0.0,0.0,2.522280686986204,29.81375349143741,65.7972764943368,94.46785992184743,114.01104476438124,125.0256633829885,128.36445062428933,124.33610807145874,113.52120171967869,95.53857340116312,68.64622069093511,35.51164188463401,6.133236779725295,0.0,0.0,0.0,0.0,0.0,0.0,0.0,0.0,0.0,0.0,0.0,2.7037265879450185,29.269415788560966,64.81728596550053,94.25018572858309,114.13799600716615,109.83748460289736,130.37892634013576,126.80389410027107,116.07971069897042,97.38956514248794,68.01116003757924,35.275701325501316,6.205997803767505,0.0,0.0,0.0,0.0,0.0,0.0,0.0,0.0,0.0,0.0,0.0,2.867210562466634,28.343919917898564,62.494717545341466,64.03700770349138,57.46842253723739,64.65410643041004,29.069703521733818,90.69372429401787,113.15830991776104,93.34295622378905,66.23292932029663,33.26153004908602,6.3146826806841085,0.0,0.0,0.0,0.0,0.0,0.0,0.0,0.0,0.0,0.0,0.0,2.7761831725560886,27.509146997715558,39.667240119680685,70.87806616061474,109.60154404376469,94.25018572858309,126.06014856999859,122.14049089408462,112.25108041296696,94.7400287732857,68.53723137458735,34.96730418175757,6.405405631163516,0.0,0.0,0.0,0.0,0.0,0.0,0.0,0.0,0.0,0.0,0.0,3.230102364384264,27.99929448184927,60.22664378335629,71.73080100723493,87.24594773636926,38.306091423058426,82.45528884796674,104.30308018422241,87.3728989791542,50.84503827337838,32.98936119764781,15.424119339223786,5.897296220592607,0.0,0.0,0.0,0.0,0.0,0.0,0.0,0.0,0.0,0.0,0.0,2.7037265879450185,4.7541261566658495,19.10783645600509,24.859915067944414,30.739249362099823,58.48433691894807,86.6833436676245,51.4438706344287,48.413480536871575,29.23318749625544,24.44252860785291,14.734564027694061,6.405405631163516,0.0,0.0,0.0,0.0,0.0,0.0,0.0,0.0,0.0,0.0,0.0,1.7420024249770742,9.998399797465408,64.20049167801301,68.28332888901747,81.25762412586613,86.22972891522743,81.33008071047719,91.52819277476972,81.74746717056868,76.52176433506861,52.98616079257862,34.1507976274429,6.950047773471099,0.0,0.0,0.0,0.0,0.0,0.0,0.0,0.0,0.0,0.0,0.0,0.18144590095881444,1.6875077668032024,6.859324822991692,10.578965792647386,10.960123960433352,17.492785273812952,21.59358441125461,50.355195228675825,44.36687161817265,33.62442185100366,21.75706838577623,6.223959730204702,0.0,0.0,0.0,0.0,0.0,0.0,0.0,0.0,0.0,0.0,0.0,0.0,4.391234354748221,32.10009361929093,67.1581207515279,93.54236405118506,111.97891156152876,122.99322574070484,126.45926866422178,122.79381791330879,112.95859765093388,94.84901808963343,68.95461783467886,36.54612707164416,7.0769990162560426,0.0,0.0,0.0,0.0,0.0,0.0,0.0,0.0,0.0,0.0,0.0,4.7723925225341866,32.118359985159266,65.1259875486754,91.63687765168636,110.12791982020391,100.3654605818712,125.49754450125386,120.72515197871964,110.76298047355978,92.5626779617799,20.79534422280829,36.00148492933658,7.367129794131462,0.0,0.0,0.0,0.0,0.0,0.0,0.0,0.0,0.0,0.0,0.0,4.899343765319129,33.18907346447495,69.20882475967987,98.60519179102579,118.94692126143705,130.6873234838795,134.0261107251804,114.80958939225869,90.8931321214139,100.27473763139179,71.73110544666608,31.047646505843577,7.3853961599997975,0.0,0.0,0.0,0.0,0.0,0.0,0.0,0.0,0.0,0.0,0.0,5.153550690320153,33.461242315913175,69.11810180920047,98.26056635497648,118.52953480134552,130.46934485118402,133.97161606700652,130.5058775829207,119.20082374700694,99.94807412177971,72.22094849136866,23.00922776605073,7.530613768653077,0.0,0.0,0.0,0.0,0.0,0.0,0.0,0.0,0.0,0.0,0.0,5.371224883584501,33.58819355869812,66.68654407269365,96.46406927182557,116.27942296579756,127.72938997093348,131.03194891992882,127.36649816901584,115.91653116387992,65.50684127703023,68.46477478997627,36.201197196163726,8.056685105661183,0.0,0.0,0.0,0.0,0.0,0.0,0.0,0.0,0.0,0.0,0.0,5.661660100891062,33.805867751962474,66.90421826595802,93.52440212474785,111.81542758700714,122.23121384456402,125.17088099164171,109.09343463319377,112.16035746248757,93.88729392666546,68.68244898324063,37.36263362595883,8.238131006619996,0.0,0.0,0.0,0.0,0.0,0.0,0.0,0.0,0.0,0.0,0.0,5.788611343676004,34.54991772166606,67.64826823566162,96.55479222230495,115.6623242388789,126.42304037191624,130.2516706579197,126.74970388152836,88.37085143442768,98.02462579584382,70.91429445292026,37.30813896778496,8.074951471529522,0.0,0.0,0.0,0.0,0.0,0.0,0.0,0.0,0.0,0.0,0.0,3.0486564634254494,12.756621043584301,41.191263911962274,70.44271777408602,88.67924857817144,94.64930582280628,99.60314424629928,118.80170365278376,108.18620512839969,90.63922963584402,65.85177115251068,35.184978375021906,7.875239204702369,0.0,0.0,0.0,0.0,0.0,0.0,0.0,0.0,0.0,0.0,0.0,5.897296220592607,22.936466742008523,49.71983013588883,67.9928936717109,64.50888882175676,111.6339816860483,57.17798731993083,108.29519444474742,69.98910302168899,64.30917655492959,37.54407952691764,19.561451208402122,6.296720754246912,0.0,0.0,0.0,0.0,0.0,0.0,0.0,0.0,0.0,0.0,0.0,1.7602687908454109,11.32301576235098,53.94788495554657,39.884914312945035,77.73739098360643,90.38502271084299,92.16355786755676,44.31237695999879,43.47760403981579,43.550365063858,31.465032965935077,17.910171733904452,5.3349965912789665,0.0,0.0,0.0,0.0,0.0,0.0,0.0,0.0,0.0,0.0,0.0,6.278454388378575,16.585555769018878,47.85087646812681,66.41437522125544,43.96775152394949,100.0567589986963,106.04508260919943,82.03790238787523,72.05746451684703,47.306538765250366,33.134578806301086,16.984675863242042,5.625127369154386,0.0,0.0,0.0,0.0,0.0,0.0,0.0,0.0,0.0,0.0,0.0,0.18144590095881444,16.893952912762636,4.010380626393394,6.1697695114619675,23.698783077580448,47.832914541689604,61.71443928333233,48.794638704657544,43.89499049990729,49.93780876858431,40.501708600432536,22.97269503431406,6.6051178979906675,0.0,0.0,0.0,0.0,0.0,0.0,0.0,0.0,0.0,0.0,0.0,0.0,20.305196738674574,21.466633168469674,20.577670029543935,80.93096061625404,68.28332888901747,40.08432214034104,51.09894075894827,33.37051936543377,29.1969592039499,27.32770109675674,6.950047773471099,3.8106683595662414,0.0,0.0,0.0,0.0,0.0,0.0,0.0,0.0,0.0,0.0,0.0,1.7964970831509464,5.516442492237783,13.64588862194117,51.29865302577542,116.1524717230126,125.75144698682371,129.34444115312564,111.0893395437407,116.40637420858248,98.29679464728204,70.04329324043174,38.288129496621245,8.692050198448174,0.0,0.0,0.0,0.0,0.0,0.0,0.0,0.0,0.0,0.0,0.0,7.040770723950507,36.63685002212357,69.20882475967987,94.34090867906252,111.81542758700714,121.74137079986146,124.2998797791532,120.19877620228041,109.87371289520287,92.4174603531266,67.72072482027268,36.94524716586733,8.238131006619996,0.0,0.0,0.0,0.0,0.0,0.0,0.0,0.0,0.0,0.0,0.0,7.004237992213832,36.21946356203207,68.26506252314914,92.76239022860706,109.31141326588926,118.80170365278376,121.36021263207549,118.1666429994279,108.73054283127613,92.07253047764618,67.88420879479429,37.38059555239602,8.528566223926555,0.0,0.0,0.0,0.0,0.0,0.0,0.0,0.0,0.0,0.0,0.0,7.494385476347543,36.54612707164416,68.95461783467886,94.05047346175596,111.4525357850895,121.1787667311167,123.77350400271395,125.44304984307995,110.40008867164214,93.83279926849157,69.37200429477035,38.233634838447365,8.855229733538653,0.0,0.0,0.0,0.0,0.0,0.0,0.0,0.0,0.0,0.0,0.0,7.6396030850008225,36.34641480481701,68.04738832988478,92.4174603531266,109.85575096876568,119.23705203931246,121.6868761416876,109.98270221155063,108.31315637118463,91.4919644824642,66.99494121643743,37.035970116346725,9.0549420003658,0.0,0.0,0.0,0.0,0.0,0.0,0.0,0.0,0.0,0.0,0.0,7.712059669611893,36.14670253798986,65.65205888568353,94.75799069972288,112.26904233940417,108.98474975627715,125.93289288778251,121.83209375034086,111.21659522595681,94.19569107040924,67.24884370200732,37.217416017305545,9.109132219108538,0.0,0.0,0.0,0.0,0.0,0.0,0.0,0.0,0.0,0.0,0.0,7.040770723950507,30.485346876529942,57.52261275598012,82.20138636239686,59.04694098769285,63.43817534244107,109.2389566812782,107.58767720678051,98.73214303381071,72.91050380289838,66.26915761260217,32.59024110342464,9.308844485935689,0.0,0.0,0.0,0.0,0.0,0.0,0.0,0.0,0.0,0.0,0.0,8.546832589794894,32.33603417842362,53.458041910844,73.21890094664212,75.46901278219012,91.65544845698582,102.1981859573277,96.99014060883364,77.33827088938327,44.8204863705697,32.48125178707689,23.263130251620613,6.714107214338412,0.0,0.0,0.0,0.0,0.0,0.0,0.0,0.0,0.0,0.0,0.0,2.014171276415296,23.263130251620613,43.13297860376649,57.77681968098115,82.09209260661797,86.84652320271496,97.31680411844572,114.97276892734915,104.10367235682638,87.86304646328793,64.23671997031853,35.20324474089025,9.726230946027187,0.0,0.0,0.0,0.0,0.0,0.0,0.0,0.0,0.0,0.0,0.0,6.459900289337388,20.305196738674574,42.20748273310408,60.607497511711124,56.25249144926842,58.26666272568371,87.0462354695421,83.12657779362812,94.06873982762428,75.90466560814994,65.18017776741813,36.25569185433761,10.07116082150762,0.0,0.0,0.0,0.0,0.0,0.0,0.0,0.0,0.0,0.0,0.0,8.746240417190906,36.110474245684316,67.61173550392495,92.98006442187142,86.79233298397223,116.71477135232624,118.98314955374256,115.20870948648184,105.10132037266871,46.12714040901806,66.05117897990671,36.473366047601964,9.962171505159873,0.0,0.0,0.0,0.0,0.0,0.0,0.0,0.0,0.0,0.0,0.0,8.492337931621021,35.783810736072226,66.66827770682532,54.80092424159791,93.72380995214388,120.23530893401708,123.21089993396916,115.13625290187079,90.00386454305702,70.73284855196147,53.31282430219071,28.870295694337806,7.566842060958612,0.0,0.0,0.0,0.0,0.0,0.0,0.0,0.0,0.0,0.0,0.0,5.207740909062887,1.3791106230594454,19.48869018435991,38.37885244710064,86.7920285445411,59.11970201173506,51.498365292602564,79.3886704581041,80.31416632876652,41.82632456531813,28.32595799146136,20.19651186175797,10.524775573904654,0.0,0.0,0.0,0.0,0.0,0.0,0.0,0.0,0.0,0.0,0.0,9.454062094588966,40.465480308127006,75.12438734614081,101.61761996214571,119.74516144988337,129.9070452218704,132.0847004728073,127.22128056036257,116.29738489223473,98.15157703862877,72.62006858559181,39.7214303384234,10.651726816689598,0.0,0.0,0.0,0.0,0.0,0.0,0.0,0.0,0.0,0.0,0.0,9.472328460457305,38.923190149977096,69.95257028995232,94.5223545800213,111.035149324998,120.2894991527598,122.73932325513492,119.79965610805723,109.12996736493044,92.90730339782921,68.66448705680344,38.83246719949768,10.615498524384062,0.0,0.0,0.0,0.0,0.0,0.0,0.0,0.0,0.0,0.0,0.0,5.371224883584501,38.324357788926775,69.11810180920047,93.52440212474785,110.63602923077481,120.108053251801,122.55787735417611,86.26595720753298,109.87371289520287,92.45368864543215,68.37405183949687,38.43304266584338,10.470280915730783,0.0,0.0,0.0,0.0,0.0,0.0,0.0,0.0,0.0,0.0,0.0,9.454062094588966,37.090464774520605,66.99494121643743,90.63922963584402,107.04303506447296,116.1704336494498,118.62025775182495,102.61526797798805,107.07926335677848,22.04750360308279,34.695135330319346,38.12464552209962,11.196064519566042,0.0,0.0,0.0,0.0,0.0,0.0,0.0,0.0,0.0,0.0,0.0,9.889410481117666,30.32186290200832,66.25089124673383,89.60474444883387,105.62769614910799,114.77336109995315,101.74457120493065,77.46522213216821,29.97723746595903,80.71328642298967,52.369366505091115,37.59857418509152,11.413738712830385,0.0,0.0,0.0,0.0,0.0,0.0,0.0,0.0,0.0,0.0,0.0,9.798687530638258,36.43713775529642,66.03291261403835,89.58678252239666,106.04508260919943,115.37219346100348,64.30917655492959,116.51536352493022,105.246537981322,89.26011901278456,66.05117897990671,32.154588277464796,11.141569861392169,0.0,0.0,0.0,0.0,0.0,0.0,0.0,0.0,0.0,0.0,0.0,9.671736287853316,37.16292135913167,68.48273671641347,93.17977668869855,110.25487106298884,120.0173303013216,122.73932325513492,119.72719952344616,109.65603870193856,92.63513454639096,66.65001134095701,38.288129496621245,11.232292811871575,0.0,0.0,0.0,0.0,0.0,0.0,0.0,0.0,0.0,0.0,0.0,9.780725604201061,36.74553489904017,66.08771171164335,92.2360144521678,110.09169152789836,119.74516144988337,122.35816508734895,118.85619831095762,108.71258090483893,89.02417845365187,65.7972764943368,37.94319962114081,11.32301576235098,0.0,0.0,0.0,0.0,0.0,0.0,0.0,0.0,0.0,0.0,0.0,6.097008487419759,35.529908250502345,60.22633934392514,80.76778108116355,105.2648043471903,106.11784363324165,97.11739629104972,107.13375801495232,90.76618087862894,81.02168356673344,58.901723379039574,37.34436726009049,11.468233371004262,0.0,0.0,0.0,0.0,0.0,0.0,0.0,0.0,0.0,0.0,0.0,10.016666163333749,31.065912871711923,65.03526459819601,87.73579078107184,103.3958506794283,112.08759643844536,115.10002460956524,112.12412917018204,61.87761881842281,72.05776895627817,64.32744292079795,31.247358772670733,11.958076415706834,0.0,0.0,0.0,0.0,0.0,0.0,0.0,0.0,0.0,0.0,0.0,10.288835014771967,35.71135415146116,63.910056460706436,86.6833436676245,102.76048558664131,111.92441690335487,115.02756802495419,111.68847634422218,101.94397903232668,75.23307222305745,59.59127869056929,28.543632184725713,10.814906351780074,0.0,0.0,0.0,0.0,0.0,0.0,0.0,0.0,0.0,0.0,0.0,8.836963367670315,36.41887138942808,57.14175902762529,74.52555498509051,93.56063041705342,80.6408298383786,84.05237810372168,89.51402149835445,79.67880123597952,78.91678933983873,58.15797784876711,22.700526182875837,11.123607934954968,0.0,0.0,0.0,0.0,0.0,0.0,0.0,0.0,0.0,0.0,0.0,8.456109639315486,34.80382020723595,56.37944269205337,76.84812340524957,93.74207631801218,101.49036427992962,109.3476415581948,102.10746300684828,93.45164110070564,90.29429976036356,67.50305062700835,39.32231024420026,11.159836227260504,0.0,0.0,0.0,0.0,0.0,0.0,0.0,0.0,0.0,0.0,0.0,9.290882559498488,28.489137526551836,56.45220371609558,76.48553604276306,89.06040674595741,97.1898528756608,104.52075437748672,97.91563647949606,96.55479222230495,79.31590943406187,52.314871846917235,34.93107588945203,11.359244054656518,0.0,0.0,0.0,0.0,0.0,0.0,0.0,0.0,0.0,0.0,0.0,9.308844485935689,35.09425542454251,50.6090977142457,74.81568576296591,84.54222114842425,72.78355256011343,38.668983224976074,70.29750016543275,88.20736745990608,70.93256081878863,55.47221318725929,34.71309725675654,11.522728029178133,0.0,0.0,0.0,0.0,0.0,0.0,0.0,0.0,0.0,0.0,0.0,9.617241629679445,34.20529228561677,60.44431797662062,75.88639924228161,93.2519288338785,97.26261389970301,105.42798388228078,94.97596933241836,84.16075854120714,67.32160472604953,53.09515010892636,33.84209604426801,4.590946621575372,0.0,0.0,0.0,0.0,0.0,0.0,0.0,0.0,0.0,0.0,0.0,8.78277314892758,36.654811948560756,65.37989003424529,88.134910875295,103.831199065957,112.74092345766952,115.3176988028296,112.32353699757805,103.05092080394788,87.9534649743362,66.0332170534695,38.723477883149926,12.429957533972207,0.0,0.0,0.0,0.0,0.0,0.0,0.0,0.0,0.0,0.0,0.0,9.018409268629126,36.43713775529642,64.4364322371457,87.1189964935843,102.86947490298908,111.59775339374279,54.4014997079436,62.02283642707609,76.99334101390285,86.97377888493105,64.50888882175676,37.99769427931468,11.540689955615331,0.0,0.0,0.0,0.0,0.0,0.0,0.0,0.0,0.0,0.0,0.0,10.56100386621019,19.92434301031975,63.021093321780704,85.26770031282838,100.98255930878985,85.3039286051339,79.60634465136846,49.79259115993104,12.030837439749046,40.48374667399535,44.54831751913147,31.44707103949788,11.776630514748016,0.0,0.0,0.0,0.0,0.0,0.0,0.0,0.0,0.0,0.0,0.0,9.707964580158851,37.38059555239602,67.39406131066059,91.14733904641493,107.71432401013432,117.18665247059162,119.99936837488441,100.54690648283001,108.5128686380118,91.87312265025018,69.13606373563765,40.75591552543357,12.575175142625485,0.0,0.0,0.0,0.0,0.0,0.0,0.0,0.0,0.0,0.0,0.0,10.161883771987023,36.092207879815994,63.96455111888031,86.21146254935911,101.85325608184723,110.72675218125424,113.81163693698521,111.3073181764362,102.39759378472372,87.40912727145975,47.99609407678009,32.73545871207792,13.028789895022523,0.0,0.0,0.0,0.0,0.0,0.0,0.0,0.0,0.0,0.0,0.0,9.92594321285434,36.56408899808136,41.42720447109495,87.59057317241856,56.94204676079814,113.17627184419823,114.35597463986166,87.26421410223759,103.08714909625341,87.7175244152035,66.54132646404038,39.57621272977014,12.847343994063706,0.0,0.0,0.0,0.0,0.0,0.0,0.0,0.0,0.0,0.0,0.0,9.92594321285434,36.1829308302954,64.3636712131035,87.1189964935843,101.8349897159789,83.50773596141408,115.11798653600245,110.94442637451859,102.16195766502216,87.2821760286748,65.59756422750965,39.23158729372085,13.210235795981335,0.0,0.0,0.0,0.0,0.0,0.0,0.0,0.0,0.0,0.0,0.0,10.252606722466432,25.89440025495457,63.710648633310434,85.6126301883088,100.87356999244213,109.85575096876568,112.54121119084236,109.14823373079878,100.40168887417671,63.184272856871175,44.784258078264166,37.30813896778496,12.121560390228453,0.0,0.0,0.0,0.0,0.0,0.0,0.0,0.0,0.0,0.0,0.0,10.252606722466432,35.63859312741895,63.00282695591238,85.48567894552386,101.25442372079692,60.17214912518241,80.35039462107204,17.638002882466235,97.0991299251814,86.86448512915216,67.66623016209881,40.2840344071682,12.484452192146078,0.0,0.0,0.0,0.0,0.0,0.0,0.0,0.0,0.0,0.0,0.0,10.034628089770942,35.783810736072226,64.18222531214467,86.71957195993004,102.74252366020413,77.392461108126,116.1704336494498,92.1452915016884,43.768039257122346,4.663403206186441,7.1314936744299136,6.58685153212233,3.8651630177401137,0.0,0.0,0.0,0.0,0.0,0.0,0.0,0.0,0.0,0.0,0.0,10.034628089770942,35.820039028377764,63.383680684267205,86.10247323301138,102.10746300684828,95.82870417903857,49.81055308636823,74.52555498509051,103.68628589673487,87.4636219296336,66.17843466212277,34.1507976274429,13.899791107511055,0.0,0.0,0.0,0.0,0.0,0.0,0.0,0.0,0.0,0.0,0.0,5.715850319633794,35.039760766368644,62.2770433520771,68.79143829958838,101.12747247801201,71.07777842744187,44.748029785958636,67.57550721161941,86.30218549983853,57.14175902762529,15.641793532488133,0.9979524552734794,12.865610359932045,0.0,0.0,0.0,0.0,0.0,0.0,0.0,0.0,0.0,0.0,0.0,10.034628089770942,35.402652568286264,63.54716465878882,86.64681093588781,101.18166269675473,79.46112704271516,56.68814427522826,83.7436765205468,87.49985022193917,87.53607851424469,64.20049167801301,17.020904155547573,7.7303260354802275,0.0,0.0,0.0,0.0,0.0,0.0,0.0,0.0,0.0,0.0,0.0,10.016666163333749,35.51164188463401,63.293262173218935,86.01175028253195,101.9984736905005,74.4527939610483,25.89440025495457,99.25851881024995,89.93140795844593,65.7065535438574,7.784516254222963,13.64588862194117,9.871448554680466,0.0,0.0,0.0,0.0,0.0,0.0,0.0,0.0,0.0,0.0,0.0,6.187731437899168,22.392129039132083,18.690449995913585,20.341729470411245,33.84209604426801,48.15927361187057,93.16120588339909,81.72950524413149,24.75123019102781,4.7178978643603156,21.085475000683704,15.29716809643884,9.21812153545628,0.0,0.0,0.0,0.0,0.0,0.0,0.0,0.0,0.0,0.0,0.0,9.762459238332722,35.457147226460144,63.42021341600388,86.57435435127674,100.85530362657377,90.4757456613224,113.70264762063749,110.23690913655165,101.25442372079692,86.64711537531895,67.23088177557011,40.556203258606416,13.300958746460743,0.1269512427849423,0.0,0.0,0.0,0.0,0.0,0.0,0.0,0.0,0.0,0.0,8.58306088210043,35.457147226460144,64.50888882175676,88.134910875295,105.22857605488478,83.85236139746338,104.9746735693149,80.45907949798865,94.63134389636907,84.6691723912092,68.17433957266971,40.15708316438326,14.716297661825724,0.1269512427849423,0.0,0.0,0.0,0.0,0.0,0.0,0.0,0.0,0.0,0.0,7.984228521050112,35.22120666732745,62.82138105495356,79.20722455714528,100.92776021118485,97.42548899536236,93.34295622378905,104.39380313470178,71.80356203127714,74.97916973748754,67.21261540970178,40.882866768218506,13.282996820023547,0.14521760865327935,0.0,0.0,0.0,0.0,0.0,0.0,0.0,0.0,0.0,0.0,9.526518679200036,36.509594339907494,65.43438469241916,88.0441879248156,94.06873982762428,99.07676846986,121.50543024072876,117.44085939559264,108.36765102935853,93.1615103228302,68.86389488419945,41.899085589360325,13.04705626089086,0.2721688514382217,0.0,0.0,0.0,0.0,0.0,0.0,0.0,0.0,0.0,0.0,8.347120322967744,29.487089981825317,53.16760669353744,77.17478691486166,90.82037109737169,98.85939871602682,104.43033586643848,111.30762261586734,102.01674005636885,87.60883953828692,66.7407342914364,40.61069791678029,13.464442720982358,0.10898931634774424,0.0,0.0,0.0,0.0,0.0,0.0,0.0,0.0,0.0,0.0,8.855229733538653,32.71719234620958,52.7867529651826,50.935761223857796,43.24196792011424,70.58793538273932,96.42784097952,70.58793538273932,89.45952684018059,72.3478997341536,56.415670984358904,14.11746530077541,11.55895632148367,0.0,0.0,0.0,0.0,0.0,0.0,0.0,0.0,0.0,0.0,0.0,8.58306088210043,27.0920649770552,63.98281748474865,31.356348089018468,11.613450979657538,8.510604297489357,34.80382020723595,65.43438469241916,110.98065466682414,80.2234433782871,51.77053414404079,36.890752507693456,14.916009928652876,0.2904352173065587,0.0,0.0,0.0,0.0,0.0,0.0,0.0,0.0,0.0,0.0,0.0,8.165674422008928,32.698925980341244,50.15548296184867,90.49370758775959,105.13785310440538,120.4529831272814,100.27473763139179,88.4615743849071,48.558698145524865,60.33532866027289,31.283587064976267,13.409948062808487,0.14521760865327935,0.0,0.0,0.0,0.0,0.0,0.0,0.0,0.0,0.0,0.0,8.074951471529522,34.94903781588923,53.07688374305803,85.57640189600329,101.00021679579592,110.2910993552944,100.6921240914833,95.593068059337,102.97815977990568,87.24594773636926,66.57755475634592,40.86460040235018,13.845296449337187,0.2721688514382217,0.0,0.0,0.0,0.0,0.0,0.0,0.0,0.0,0.0,0.0,9.381605509977897,34.60441237983993,62.6216687881264,85.34046133687058,101.708038473194,111.83369395287546,114.84581768456422,67.63000186979328,105.15581503084258,88.98795016134632,64.5451171140623,41.62691673792211,13.863562815205526,0.4356528259598381,0.0,0.0,0.0,0.0,0.0,0.0,0.0,0.0,0.0,0.0,8.746240417190906,34.440928405318324,63.05732161408625,74.23511976778394,56.76060085983934,22.664297890570303,75.09455228188921,75.00839592287687,75.00748260458346,57.827356626550205,22.59184130595923,32.48125178707689,13.990514057990467,0.4356528259598381,0.0,0.0,0.0,0.0,0.0,0.0,0.0,0.0,0.0,0.0,9.091170292671336,33.969351726484085,62.2222442544721,71.46715645986859,73.51694714972716,65.54032961445553,51.75470329362157,18.254797169953747,13.337187038766274,41.10054096148286,52.96789442671029,29.16042647221323,9.835220262374932,0.0,0.0,0.0,0.0,0.0,0.0,0.0,0.0,0.0,0.0,0.0,7.802782620091298,34.023541945226825,62.47675561890426,72.35733735651891,74.17758071529869,24.152397829977488,21.63011714299129,20.668392980023338,38.43304266584338,49.93780876858431,53.294862375753524,40.57446962447476,13.972247692122128,0.0,0.0,0.0,0.0,0.0,0.0,0.0,0.0,0.0,0.0,0.0,5.5526707845433165,31.174902188059658,59.718534372785356,85.55843996956605,72.25717678367418,31.356348089018468,84.17902490707547,87.0462354695421,68.86389488419945,70.67865833321873,34.18702591974844,41.173301985525065,7.857277278265173,0.0,0.0,0.0,0.0,0.0,0.0,0.0,0.0,0.0,0.0,0.0,9.744497311895524,19.561451208402122,50.209977620022535,66.7227723649992,3.7924019936979056,8.746240417190906,12.484452192146078,26.856124417922512,57.014503345409224,85.61293462773993,54.96410377668838,1.8872200336303533,14.135731666643743,0.0,0.0,0.0,0.0,0.0,0.0,0.0,0.0,0.0,0.0,0.0,8.492337931621021,33.62442185100366,61.315319189109175,84.34250888159708,99.87561753716862,113.57569637785252,116.85998896097954,109.25691860771539,100.8008089683999,74.63423986200709,65.63409695924632,40.175045090820454,15.569336947877062,0.0,0.0,0.0,0.0,0.0,0.0,0.0,0.0,0.0,0.0,0.0,8.945952684018057,32.35430054429195,58.77477213625463,83.23556710997588,100.83703726070543,87.37259453972305,95.37539386607266,112.50498289853684,102.86947490298908,87.15522478588986,64.07354043522804,39.35853853650579,13.48240464741956,0.0,0.0,0.0,0.0,0.0,0.0,0.0,0.0,0.0,0.0,0.0,8.819001441233118,32.626469395730176,59.33737620499941,81.80196182874256,87.62680146472408,100.58313477513556,96.95391231652813,95.72001930212194,85.97552199022644,74.87018042113979,57.74059138867561,39.15913070910978,14.716297661825724,0.0,0.0,0.0,0.0,0.0,0.0,0.0,0.0,0.0,0.0,0.0,8.456109639315486,31.991408742374325,58.06725489828771,79.98750281915443,97.02636890113918,81.27589049173444,67.81144777075211,108.96648339040884,16.603517695456073,26.23902569100386,29.487089981825317,40.79214381773911,13.700078840683908,0.0,0.0,0.0,0.0,0.0,0.0,0.0,0.0,0.0,0.0,0.0,8.510604297489357,32.154588277464796,58.59332623529581,80.6408298383786,96.79042834200649,106.44420270342262,72.14849190675757,67.72072482027268,101.25472816022808,85.84857074744147,65.59756422750965,40.82837211004465,15.551070582008727,0.10898931634774424,0.0,0.0,0.0,0.0,0.0,0.0,0.0,0.0,0.0,0.0,8.020456813355649,32.6626976880357,60.280834002099006,83.34455642632362,99.78489458668922,109.25691860771539,101.708038473194,96.17363405451898,58.99244632951897,76.53972626150579,60.95242738719154,38.451309031711716,15.224407072396634,0.10898931634774424,0.0,0.0,0.0,0.0,0.0,0.0,0.0,0.0,0.0,0.0,7.712059669611893,30.95692355536417,48.8488289234003,73.99917920865127,91.43746982429032,88.04449236424674,90.78444724449729,66.12394000394889,80.49561222972531,67.81144777075211,59.22838688865168,38.39681437353784,5.298768298973432,0.0,0.0,0.0,0.0,0.0,0.0,0.0,0.0,0.0,0.0,0.0,1.959676618241424,10.397519891688573,29.16042647221323,33.769639459656936,69.02737885872106,96.28262337086673,89.84068500796654,89.35053752383284,81.23935775999777,62.367766302556525,43.35065279703085,33.06181778225888,12.720392751278766,0.0,0.0,0.0,0.0,0.0,0.0,0.0,0.0,0.0,0.0,0.0,7.9480002287445775,20.305196738674574,31.44707103949788,54.43803243968027,82.6729630412311,83.32629006045529,77.80984756821749,97.06290163287585,95.86523691077524,71.7673337389716,57.032769711277545,29.487089981825317,10.470280915730783,0.0,0.0,0.0,0.0,0.0,0.0,0.0,0.0,0.0,0.0,0.0,6.786563798949484,31.029684579406386,57.05103607714589,79.3886704581041,72.49311734280687,84.25178593111771,36.63685002212357,104.17612894143744,92.47165057186936,67.1581207515279,17.202350056506393,7.585108426826949,0.0,0.0,0.0,0.0,0.0,0.0,0.0,0.0,0.0,0.0,0.0,0.0,7.893505570570707,31.065912871711923,57.10522629588861,80.07822576963383,97.71592421266891,60.13561639344574,98.26026191554534,99.22229051794443,63.25672944148226,79.02577865618646,51.51632721903977,34.42296647888112,9.889410481117666,0.0,0.0,0.0,0.0,0.0,0.0,0.0,0.0,0.0,0.0,0.0,7.421624452305332,31.50126125824061,59.40983278961048,72.98296038750944,84.6691723912092,89.40533662143784,72.96499846107224,69.31750963659648,86.26595720753298,87.554344880113,59.24665325452,38.63275493267053,15.115722195480027,0.10898931634774424,0.0,0.0,0.0,0.0,0.0,0.0,0.0,0.0,0.0,0.0,7.6396030850008225,31.15663582219132,58.411880334337,81.71123887826316,98.49620247467804,108.54940136974844,98.75040939967907,111.1258722754774,102.34340356598095,88.15317724116335,67.08566416691683,40.919095060524036,13.881524741642725,0.0,0.0,0.0,0.0,0.0,0.0,0.0,0.0,0.0,0.0,0.0,7.51234740278474,31.029684579406386,51.044750540205534,70.44271777408602,65.63409695924632,27.001342026575784,17.85567707573058,43.96775152394949,86.44740310849183,63.34745239196166,52.133425945958436,40.64692620908583,11.177798153697703,0.0,0.0,0.0,0.0,0.0,0.0,0.0,0.0,0.0,0.0,0.0,6.459900289337388,21.865753262692838,59.46432744778435,33.82413411783081,80.18691064655043,79.71533396771619,18.762906580524653,27.291472804451214,52.07893128778455,50.55460305607183,40.338529065342065,22.482851989611486,4.391234354748221,0.0,0.0,0.0,0.0,0.0,0.0,0.0,0.0,0.0,0.0,0.0,3.3208253148636717,23.11791264296734,8.383348615273276,22.50111835547982,27.001342026575784,51.22619644116436,53.51253656901789,59.40983278961048,62.78515276264802,63.47470807417774,7.984228521050112,20.087522545410227,12.502718558014411,0.0,0.0,0.0,0.0,0.0,0.0,0.0,0.0,0.0,0.0,0.0,2.4315577365067966,18.381748412738684,27.74508755684825,46.30858630997688,105.89986500054616,88.98795016134632,116.02521604079651,76.63044921198521,48.10508339312784,84.08830195659606,68.37405183949687,41.44547083696329,14.444128810387506,0.0,0.0,0.0,0.0,0.0,0.0,0.0,0.0,0.0,0.0,0.0,6.079046560982563,31.75546818324164,61.895885184291146,89.06040674595741,107.13375801495232,47.106826498423224,97.8611418213222,115.19074756004466,105.89986500054616,91.54615470120693,69.73489609668798,31.6285169404567,13.246464088286869,0.0,0.0,0.0,0.0,0.0,0.0,0.0,0.0,0.0,0.0,0.0,6.6051178979906675,31.247358772670733,59.93620856604972,83.70744822824125,100.3654605818712,110.41835503751051,79.31590943406187,112.14209109661924,69.49895553755529,89.20562435461069,67.28537643374399,40.773877451870774,14.698335735388525,0.0,0.0,0.0,0.0,0.0,0.0,0.0,0.0,0.0,0.0,0.0,6.968009699908298,30.41258585248773,49.55665060079835,74.4527939610483,87.7175244152035,98.042587722281,111.23486159182514,108.5490969303173,49.955770695021506,65.28916708376589,66.10567363808056,40.102588506209386,12.792849335889835,0.0,0.0,0.0,0.0,0.0,0.0,0.0,0.0,0.0,0.0,0.0,6.714107214338412,29.90447644191682,57.214215612236366,80.7495147152952,97.62520126218952,107.6601337913916,111.12617671490854,110.21833833125216,101.708038473194,87.5181165878075,66.66827770682532,40.22953974899433,14.280949275297024,0.0,0.0,0.0,0.0,0.0,0.0,0.0,0.0,0.0,0.0,0.0,5.9880191710720165,30.122455074612308,59.04694098769285,83.14484415949647,74.21715784134675,40.03013192159831,115.80754184753219,111.83369395287546,107.42419323225887,92.58063988821709,70.53344072456545,41.62691673792211,13.300958746460743,0.0,0.0,0.0,0.0,0.0,0.0,0.0,0.0,0.0,0.0,0.0,5.3894912494528375,29.99519939239623,55.072788653605,57.57710741415399,26.837858052054177,68.48273671641347,98.51446884054636,89.2235862810479,73.79977138125525,73.41861321346927,49.93780876858431,33.769639459656936,13.174007503675805,0.0,0.0,0.0,0.0,0.0,0.0,0.0,0.0,0.0,0.0,0.0,5.026295008104071,24.533251558332314,50.790543615204506,76.2130627518937,84.16106298063829,98.20607169680261,113.88409352159628,95.41131771894705,87.86274202385677,81.23935775999777,66.57755475634592,34.767591914930414,12.520680484451615,0.0,0.0,0.0,0.0,0.0,0.0,0.0,0.0,0.0,0.0,0.0,5.207740909062887,29.88651451547962,59.53678403239542,83.56192618015683,100.52864011696168,110.49081162212157,79.6246110172368,14.426166883950305,49.84708581810491,85.32249941043338,70.36995675004383,36.45509968173362,12.865610359932045,0.0,0.0,0.0,0.0,0.0,0.0,0.0,0.0,0.0,0.0,0.0,5.8248396359815375,23.662250345843788,49.04854119022743,64.38193757897183,88.51606904308096,56.016550890135726,46.272358017671344,65.54337400876692,72.69282960963402,61.895885184291146,41.1367692537884,18.58146067956584,7.530613768653077,0.0,0.0,0.0,0.0,0.0,0.0,0.0,0.0,0.0,0.0,0.0,2.867210562466634,20.35969139684845,22.35590074682655,23.57152739536437,67.81144777075211,57.84927626559222,59.13766393817225,88.86069447913027,83.65295357006738,79.7515622600217,47.03436991381214,19.652174158881532,12.829077628195375,0.0,0.0,0.0,0.0,0.0,0.0,0.0,0.0,0.0,0.0,0.0,5.407453175890037,29.25145386212377,43.02398928741875,42.95153270280768,101.69007654675676,83.21730074410755,82.6550011147939,112.95859765093388,103.68598145730371,89.44156491374338,47.39726171572978,30.10418870874397,4.173560161483872,0.0,0.0,0.0,0.0,0.0,0.0,0.0,0.0,0.0,0.0,0.0,5.298768298973432,29.269415788560966,57.903770923766096,81.92891307152748,98.96808359294342,108.83953214762388,112.35976528988355,109.8012563105918,40.556203258606416,88.87896084499859,66.08771171164335,39.48548977929073,12.811115701758172,0.0,0.0,0.0,0.0,0.0,0.0,0.0,0.0,0.0,0.0,0.0,4.899343765319129,28.96101864481721,57.95826558193996,81.76573353643701,98.55069713285192,108.5128686380118,86.04828301426863,114.62814349129988,101.25442372079692,87.31840432098032,66.43233714769264,39.43129956054799,11.032884984475565,0.0,0.0,0.0,0.0,0.0,0.0,0.0,0.0,0.0,0.0,0.0,4.572680255707035,22.82747742566077,57.813047973286686,81.96544580326417,99.2947471025555,109.1296629254993,112.61366777545344,110.05546323559284,101.49036427992962,64.6358400645417,65.86973307894787,38.54203198219112,12.611403434931018,0.0,0.0,0.0,0.0,0.0,0.0,0.0,0.0,0.0,0.0,0.0,2.7399548802505542,15.351358315181574,49.46592765031895,46.544526869109575,71.4224038634912,88.7882378945192,37.852476670661396,34.731363622624876,44.748029785958636,76.77566682063849,67.63000186979328,39.286081951894715,12.847343994063706,0.0,0.0,0.0,0.0,0.0,0.0,0.0,0.0,0.0,0.0,0.0,4.7541261566658495,28.307691625593023,57.83131433915503,82.67326748066225,99.2947471025555,86.95551251906271,114.62814349129988,79.02547421675533,60.64372580401664,71.18676774378963,66.39610885538711,38.723477883149926,11.286787470045445,0.0,0.0,0.0,0.0,0.0,0.0,0.0,0.0,0.0,0.0,0.0,4.790658888402524,28.289425259724695,57.95826558193996,82.31007123931344,99.49415492995149,84.9233793
...